Version 4
SHEET 1 880 680
TEXT 128 80 Left 2 !.param a = 1
