Version 4
SHEET 1 880 680
WIRE 288 128 160 128
WIRE 160 160 160 128
WIRE 288 160 288 128
WIRE 160 256 160 240
WIRE 288 256 288 240
FLAG 160 256 0
FLAG 288 256 0
SYMBOL voltage 160 144 R0
SYMATTR InstName V1
SYMATTR Value 1
SYMBOL res 272 144 R0
SYMATTR InstName R1
SYMATTR Value 1
TEXT 32 48 Left 2 !.inc "testIncA.asc"
