Version 4
SHEET 1 880 680
WIRE 208 96 80 96
WIRE 80 144 80 96
WIRE 208 144 208 96
WIRE 80 256 80 224
WIRE 208 256 208 224
FLAG 80 256 0
FLAG 208 256 0
SYMBOL voltage 80 128 R0
SYMATTR InstName V1
SYMATTR Value 1
SYMBOL res 192 128 R0
SYMATTR InstName R1
SYMATTR Value 1
TEXT 32 280 Left 2 !.tran 1
TEXT -504 -104 Left 2 !.param A = 10p\n.param b = 10*a
TEXT -488 -16 Left 2 !.param C = 10 * a\n.param d = {a*b}
TEXT -488 64 Left 2 !.PARAM Ee  1.0K\n.PARAMETER fF 1k\n.parameter GG 1MEG\n.param h 1.123MEG
TEXT -768 -168 Left 2 !.param i = 1G\n.param j = 1g\n.param k = 1T\n.param l = 1t\n.param m = 1m\n.param n= 1M\n.param o  1U\n.param p 1u
TEXT -768 96 Left 2 !.param q = 1N\n.param r = 1n\n.param s = 1P\n.param t = 1p\n.param u = 1F\n.param v = 1f
