Version 4
SHEET 1 880 680
WIRE 240 112 144 112
WIRE 144 144 144 112
WIRE 240 144 240 112
WIRE 144 256 144 224
WIRE 240 256 240 224
FLAG 144 256 0
FLAG 240 256 0
SYMBOL voltage 144 128 R0
SYMATTR InstName V1
SYMATTR Value {x}
SYMBOL res 224 128 R0
SYMATTR InstName R1
SYMATTR Value 5
TEXT 80 56 Left 2 !.param x = 12.0
TEXT 80 88 Left 2 !.meas tran y integ i(R1)
TEXT 158 296 Left 2 !.tran 1
