Version 4
SHEET 1 916 584
WIRE -176 -320 -336 -320
WIRE -16 -320 -176 -320
WIRE 128 -320 -16 -320
WIRE 256 -320 128 -320
WIRE -336 -272 -336 -320
WIRE -176 -272 -176 -320
WIRE 128 -272 128 -320
WIRE 256 -272 256 -320
WIRE -16 -208 -16 -320
WIRE 16 -208 -16 -208
WIRE -176 -176 -176 -208
WIRE -336 -160 -336 -192
WIRE -32 -112 -48 -112
WIRE 16 -112 -32 -112
WIRE 432 -112 368 -112
WIRE 480 -112 432 -112
WIRE 624 -16 368 -16
WIRE 736 -16 624 -16
WIRE 816 -16 736 -16
WIRE 624 16 624 -16
WIRE 816 16 816 -16
WIRE 464 80 368 80
WIRE 464 128 464 80
WIRE 624 128 624 80
WIRE 816 128 816 96
WIRE 464 256 464 208
WIRE 128 384 128 336
WIRE 256 384 256 336
FLAG 464 256 0
FLAG 128 384 0
FLAG 256 384 0
FLAG 624 128 0
FLAG -176 -176 0
FLAG -336 -160 0
FLAG 816 128 0
FLAG 432 -112 INTvcc
FLAG -32 -112 INTvcc
FLAG 736 -16 out
SYMBOL PowerProducts\\LTM4623 192 32 R0
SYMATTR InstName U1
SYMBOL res 448 112 R0
SYMATTR InstName R1
SYMATTR Value {rset}
SYMBOL cap 608 16 R0
WINDOW 123 24 84 Left 2
WINDOW 39 0 0 Left 2
SYMATTR InstName C2
SYMATTR Value 42µ
SYMBOL load2 816 16 R0
WINDOW 123 0 0 Left 2
WINDOW 39 0 0 Left 2
SYMATTR InstName I1
SYMATTR Value {iout}
SYMBOL voltage -336 -288 R0
SYMATTR InstName V1
SYMATTR Value {vin}
SYMBOL cap -192 -272 R0
SYMATTR InstName C1
SYMATTR Value 10µ
TEXT -464 184 Left 2 !.tran 0 250u 200u uic
TEXT -456 -40 Left 2 !.param vin = 4\n.param iout = 1\n.param rset = 40.2k
TEXT -456 88 Left 2 !.meas tran pin integ (i(v1)*vin)/50u\n.meas tran pout integ (iout*v(out))/50u
